tests/data/Model_2.raw
@!IC, SBASE,REV,XFRRAT,NXFRAT,BASFRQ
0,   100.00, 34,     0,     1, 60.00     / PSS(R)E-34.6    MON, JUN 03 2019  10:34
PSS(R)E SAMPLE CASE

GENERAL, THRSHZ=0.0001, PQBRAK=0.7, BLOWUP=5.0
GAUSS, ITMX=100, ACCP=1.6, ACCQ=1.6, ACCM=1.0, TOL=0.0001
NEWTON, ITMXN=100, ACCN=1.0, TOLN=0.1, VCTOLQ=0.1, VCTOLV=0.00001, DVLIM=0.99, NDVFCT=0.99
ADJUST, ADJTHR=0.005, ACCTAP=1.0, TAPLIM=0.05, SWVBND=100.0, MXTPSS=99, MXSWIM=10
TYSL, ITMXTY=20, ACCTY=1.0, TOLTY=0.00001
SOLVER, FDNS, ACTAPS=0, AREAIN=0, PHSHFT=0, DCTAPS=1, SWSHNT=1, FLATST=0, VARLIM=99, NONDIV=0
RATING, 1, "CRCUS1", "Circus-Fibrous or threadlike    "
RATING, 2, "CRSTR2", "Cirrostrarus-Milky, translucent "
RATING, 3, "CRCUM3", "Cirrocumulus-small, white flakes"
RATING, 4, "ALTCU4", "Altocumulus-bundles or rollers  "
RATING, 5, "ALTST5", "Altostratus-dense, gray layer   "
RATING, 6, "STRTO6", "Stratocumulus-plaices or rollers"
RATING, 7, "STRTS7", "Stratus-Evenly grey, low layer  "
RATING, 8, "CMULS8", "Cumulus-Heap with flat basis    "
RATING, 9, "CMULO9", "Cumulonimbus-thunder, up-rises  "
RATING,10, "NIBS10", "Nimbostratus-rain,grey, dark    "
RATING,11, "CPLL11", "capillatus-haired, frayed       "
RATING,12, "NBUL12", "nebulosus-fog, veil-like        "
0 / END OF SYSTEM-WIDE DATA, BEGIN BUS DATA
@!   I,'NAME        ', BASKV, IDE,AREA,ZONE,OWNER, VM,        VA,    NVHI,   NVLO,   EVHI,   EVLO
   111,'NUC-A       ',  21.6000,2,   1,   1,   1,1.01000, -19.0142,1.10000,0.90000,1.10000,0.90000
   102,'NUC-B       ',  21.6000,2,   1,   1,   1,1.01000, -19.3678,1.10000,0.90000,1.10000,0.90000
   151,'NUCPLNT     ', 500.0000,1,   1,   1,   1,0.99923, -22.1613,1.10000,0.90000,1.10000,0.90000
   160,'MID500      ', 500.0000,1,   1,   2,   1,1.04393, -29.7672,1.10000,0.90000,1.10000,0.90000
   161,'MID501      ', 500.0000,1,   1,   2,   1,1.04393, -29.7672,1.10000,0.90000,1.10000,0.90000
   153,'MID230      ', 230.0000,1,   1,   3,   1,1.05708, -31.4386,1.10000,0.90000,1.10000,0.90000
   154,'DOWNTN      ', 230.0000,1,   1,   3,   1,0.99311, -36.8635,1.10000,0.90000,1.10000,0.90000
   155,'FACTS TE    ', 230.0000,1,   1,   4,   1,1.01849, -28.0349,1.10000,0.90000,1.10000,0.90000
   156,'FACTS TA    ', 230.0000,1,   1,   4,   1,1.01849, -28.0349,1.10000,0.90000,1.10000,0.90000
   201,'HHHHH       ', 500.0000,1,   2,   7,   2,0.99923, -22.1613,1.10000,0.90000,1.10000,0.90000
   202,'EAST500     ', 500.0000,1,   2,   2,   2,1.02225, -30.9424,1.10000,0.90000,1.10000,0.90000
   203,'EAST230     ', 230.0000,1,   2,   8,   2,1.00000, -34.1478,1.10000,0.90000,1.10000,0.90000
   204,'SUB500      ', 500.0000,1,   2,   8,   2,1.03093, -34.9445,1.10000,0.90000,1.10000,0.90000
   205,'SUB230      ', 230.0000,1,   2,   8,   2,1.00000, -37.3467,1.10000,0.90000,1.10000,0.90000
   206,'URBGEN      ',  18.0000,2,   2,   8,   2,1.00000, -34.8918,1.10000,0.90000,1.10000,0.90000
   207,'DUPONT      ', 500.0000,1,   2,   7,   2,1.01832, -28.7073,1.10000,0.90000,1.10000,0.90000
   208,'URBANEAST208', 230.0000,4,   2,   8,   2,1.00000, -31.5246,1.10000,0.90000,1.10000,0.90000
   209,'URBANEAST209', 230.0000,4,   2,   8,   2,1.00000, -31.5246,1.10000,0.90000,1.10000,0.90000
   210,'URBANEAST210', 230.0000,4,   2,   8,   2,1.00000, -31.5246,1.10000,0.90000,1.10000,0.90000
   211,'HYDRO_G     ',  30.0000,2,   2,   7,   2,1.10000, -17.5386,1.10000,0.90000,1.10000,0.92000
   212,'INVERT1     ', 230.0000,1,   2,   7,   2,1.02695, -35.7231,1.10000,0.90000,1.10000,0.90000
   219,'INVERT2     ', 230.0000,1,   2,   7,   2,1.10677, -38.9888,1.10000,0.90000,1.10000,0.90000
   214,'LOADER      ', 230.0000,1,   2,   7,   2,1.07726, -40.4187,1.10000,0.90000,1.10000,0.90000
   215,'URBANEAST215',  18.0000,1,   2,   8,   2,0.91817, -37.2809,1.10000,0.90000,1.10000,0.90000
   216,'URBANEAST216', 230.0000,1,   2,   8,   2,0.99637, -37.3236,1.10000,0.90000,1.10000,0.90000
   217,'URBANEAST217', 230.0000,1,   2,   8,   2,0.99733, -37.3298,1.10000,0.90000,1.10000,0.90000
   218,'URBANEAST218', 230.0000,1,   2,   8,   2,0.99769, -37.3320,1.10000,0.90000,1.10000,0.90000
   301,'NORTH       ', 765.0000,3,   3,   5,   3,1.00000,   0.0000,1.10000,0.90000,1.10000,0.90000
   401,'COGEN-1     ', 500.0000,3,   4,   9,   4,1.00000,   0.0000,1.10000,0.90000,1.10000,0.90000
   402,'COGEN-2     ', 500.0000,3,   6,   9,   4,1.00000,   0.0000,1.10000,0.90000,1.10000,0.90000
  3111,'YOURS       ', 230.0000,1,   5,   6,   5,0.98441, -11.9796,1.10000,0.90000,1.10000,0.90000
  3002,'E. MINE     ', 500.0000,1,   5,   6,   5,0.98662, -10.5569,1.10000,0.90000,1.10000,0.90000
  3003,'S. MINE     ', 230.0000,1,   5,   6,   5,0.98741, -15.2068,1.10000,0.90000,1.10000,0.90000
  3004,'WEST        ', 500.0000,1,   5,   6,   5,1.00898, -25.1440,1.10000,0.90000,1.10000,0.90000
  3005,'WEST        ', 230.0000,1,   5,   2,   5,0.99761, -26.0971,1.10000,0.90000,1.10000,0.90000
  3006,'UPTOWN      ', 230.0000,1,   5,   4,   5,1.05708, -31.4386,1.10000,0.90000,1.10000,0.90000
  3007,'RURAL       ', 230.0000,1,   5,   4,   5,0.98103, -29.4773,1.10000,0.90000,1.10000,0.90000
  3008,'CATDOG      ', 230.0000,1,   5,   4,   5,0.99000, -30.0543,1.10000,0.90000,1.10000,0.90000
  3009,'URBNWEST3009', 230.0000,1,   5,   4,   5,0.99048, -30.0739,1.10000,0.90000,1.10000,0.90000
  3013,'CATCAT      ', 230.0000,1,   5,   4,   5,0.99000, -30.0543,1.10000,0.90000,1.10000,0.90000
  3014,'URBNEAST3009', 230.0000,1,   5,   4,   5,0.99048, -30.0739,1.10000,0.90000,1.10000,0.90000
  3011,'MINE_G      ',  19.4000,3,   5,   6,   5,1.00000,   0.0000,1.10000,0.90000,1.05000,0.91000
  3012,'URBNWEST3012', 230.0000,4,   5,   4,   5,0.99048,   0.0000,1.10000,0.90000,1.10000,0.90000
  3018,'CATDOG_G    ',  13.8000,2,   5,   4,   5,0.99000, -26.2844,1.10000,0.90000,1.10000,0.90000
  3021,'WDUM        ',  18.0000,1,   3,   5,   3,1.00000, -26.2760,1.10000,0.90000,1.10000,0.90000
  3022,'EDUM        ',  18.0000,1,   3,   5,   3,1.00000, -25.5871,1.10000,0.90000,1.10000,0.90000
  9154,'INDGEN1     ',   4.1600,1,   1,   3,   1,0.98606, -36.1817,1.10000,0.90000,1.10000,0.90000
  9204,'INDMOTOR2   ',   0.5750,1,   2,   8,   2,0.98149, -38.6306,1.10000,0.90000,1.10000,0.90000
 93002,'INDGEN2     ',   0.6900,1,   5,   6,   5,0.94820,  -4.3678,1.10000,0.90000,1.10000,0.90000
0 / END OF BUS DATA, BEGIN LOAD DATA
@!   I,'ID',STAT,AREA,ZONE,      PL,        QL,        IP,        IQ,        YP,        YQ, OWNER,SCALE,INTRPT,  DGENP,     DGENQ, DGENF
   160,'1 ',   1,   1,   1,  1200.000,   360.000,   868.340,   360.502,   837.794,  -351.338,   1,    1,  0,     0.000,     0.000,   0
   153,'10',   1,   1,   1,   300.000,   150.000,     0.000,     0.000,     0.000,     0.000,   1,    1,  0,   100.000,    50.000,   1
   154,'1 ',   1,   1,   1,   400.000,   200.000,     0.000,     0.000,     0.000,     0.000,   1,    1,  0,    30.000,    15.000,   1
   154,'2 ',   1,   1,   1,   250.000,   200.000,     0.000,     0.000,     0.000,     0.000,   1,    1,  0,    20.000,     8.000,   1
   154,'3 ',   1,   1,   1,   250.000,   100.000,     0.000,     0.000,     0.000,     0.000,   1,    1,  0,     7.500,     2.750,   1
   154,'MO',   1,   1,   1,   100.000,    80.000,     0.000,     0.000,     0.000,     0.000,   1,    1,  0,     0.000,     0.000,   0
   156,'AA',   1,   1,   4,   100.000,    80.000,     0.000,     0.000,     0.000,     0.000,   1,    1,  0,     0.000,     0.000,   0
   201,'SA',   0,   2,   7,     0.000,     0.000,     0.000,     0.000,     0.000,     0.000,   2,    1,  0,     0.000,     0.000,   0
   203,'1 ',   1,   2,   2,   500.000,   250.000,     0.000,     0.000,     0.000,     0.000,   2,    1,  0,     0.000,     0.000,   0
   205,'1 ',   1,   2,   2,  1800.000,   600.000,     0.000,     0.000,     0.000,     0.000,   2,    1,  0,    75.860,    46.786,   0
   205,'B ',   1,   2,   2,    90.000,     5.000,   110.000,    25.000,    20.000,    10.000,   2,    1,  0,    65.123,    20.456,   1
   214,'1 ',   1,   2,   2,   450.000,    65.000,    80.000,    20.000,    10.000,     7.000,   2,    1,  0,   100.000,    50.000,   0
   215,'U1',   1,   2,   4,     0.000,   140.000,     0.000,     0.000,     0.000,     0.000,   2,    1,  0,     0.000,     0.000,   0
   216,'U1',   1,   2,   4,     0.000,    12.000,     0.000,     0.000,     0.000,     0.000,   2,    1,  0,     0.000,     0.000,   0
   217,'U1',   1,   2,   4,     0.000,    10.000,     0.000,     0.000,     0.000,     0.000,   2,    1,  0,     0.000,     0.000,   0
   218,'U1',   1,   2,   4,     0.000,     9.000,     0.000,     0.000,     0.000,     0.000,   2,    1,  0,     0.000,     0.000,   0
  3005,'1 ',   1,   5,   5,   100.000,    50.000,     0.000,     0.000,     0.000,     0.000,   5,    1,  0,     0.000,     0.000,   0
  3007,'1 ',   1,   5,   5,   200.000,    75.000,     0.000,     0.000,     0.000,     0.000,   5,    1,  0,     0.000,     0.000,   0
  3008,'1 ',   1,   5,   5,   200.000,    75.000,     0.000,     0.000,     0.000,     0.000,   5,    1,  0,     0.000,     0.000,   0
  3009,'1 ',   1,   5,   4,     1.100,     0.900,     0.000,     0.000,     0.000,     0.000,   5,    1,  0,     0.000,     0.000,   0
0 / END OF LOAD DATA, BEGIN FIXED SHUNT DATA
@!   I,'ID',STATUS,  GL,        BL
   151,'F1',1,     5.000,  -400.000
   151,'F2',1,     3.000,  -400.000
   151,'F3',1,     3.120,   200.000
   152,'1 ',1,     1.630,    50.000
   154,'1 ',1,     2.450,   200.000
   161,'BB',1,     2.450,   200.000
   201,'1 ',1,     3.670,  -500.000
   203,'1 ',1,    -5.000,    30.000
   203,'2 ',1,     5.000,    20.000
   205,'1 ',1,     2.780,   300.000
   212,'1 ',1,     5.130,   400.000
   219,'A ',1,     5.140,   400.000
  3021,'1 ',0,     0.000,  1320.000
  3022,'1 ',1,     9.000,  1100.000
0 / END OF FIXED SHUNT DATA, BEGIN GENERATOR DATA
@!   I,'ID',      PG,        QG,        QT,        QB,     VS,    IREG,     MBASE,     ZR,         ZX,         RT,         XT,     GTAP,STAT, RMPCT,      PT,        PB,    O1,    F1,  O2,    F2,  O3,    F3,  O4,    F4,WMOD, WPF,NREG
   111,'A ',   750.000,   165.207,   400.000,  -100.000,1.01000,   101,   900.000, 1.00000E-2, 3.00000E-1, 0.00000E+0, 0.00000E+0,1.00000,1,  100.0,   800.000,    50.000,   1,0.1289,   2,0.2524,   3,0.1031,   4,0.5156
   102,'1 ',   650.000,   151.880,   410.000,  -110.000,1.01000,   102,   950.000, 1.05000E-2, 3.20000E-1, 0.00000E+0, 0.00000E+0,1.00000,1,  100.0,   700.000,    33.000,   1,0.3647,   2,0.1838,   3,0.0751,   4,0.3764
   156,'GG',   650.000,   151.880,   410.000,  -110.000,1.01000,   102,   950.000, 1.05000E-2, 3.20000E-1, 0.00000E+0, 0.00000E+0,1.00000,1,  100.0,   700.000,    33.000,   1,0.3647,   2,0.1838,   3,0.0751,   4,0.3764
   206,'1 ',   800.000,   283.913,   500.000,  -400.000,1.00000,   206,  1000.000, 1.06000E-2, 2.51000E-1, 0.00000E+0, 0.00000E+0,1.00000,1,  100.0,   850.000,    50.000,   1,0.1034,   2,0.4006,   3,0.0825,   4,0.4135
   211,'1 ',   600.000,    18.351,   510.000,  -100.000,1.00000,   211,   725.000, 1.08000E-2, 2.62000E-1, 0.00000E+0, 0.00000E+0,1.00000,1,  100.0,   616.000,    30.000,   1,0.1423,   2,0.2210,   3,0.1842,   4,0.4525
   301,'1 ',   996.884,   299.543,   700.000,  -650.000,1.00000,   301,  1067.000, 1.09000E-2, 2.30000E-1, 1.40000E-2, 1.26000E-1,1.02500,1,   98.0,  1010.000,   320.000,   1,0.1118,   2,0.2184,   3,0.0893,   4,0.5805
   301,'2 ',   996.884,   299.543,   710.000,  -600.000,1.00000,   301,  1070.000, 1.10000E-2, 2.40000E-1, 1.10000E-2, 1.27000E-1,1.02600,1,   98.0,  1011.000,   321.000,   1,0.1173,   2,0.3200,   3,0.0936,   4,0.4691
   301,'3 ',   996.884,   299.543,   720.000,  -600.000,1.00000,   301,  1075.000, 8.00000E-3, 2.50000E-1, 1.20000E-2, 1.28000E-1,1.02700,1,   98.0,  1012.000,   322.000,   1,0.1260,   2,0.2268,   3,0.1827,   4,0.4644
   401,'1 ',   531.000,   150.000,   500.000,   -90.000,1.10000,   402,   500.000, 2.23000E-2, 5.22300E-1, 1.00000E-1, 1.00000E-1,1.00000,1,   90.0,   350.000,    25.000,   1,0.1625,   2,0.2423,   3,0.0990,   4,0.4962
   402,'1 ',   321.000,   142.325,   610.000,  -110.000,1.00000,   402,   610.000, 4.50000E-3, 2.43200E-1, 0.00000E+0, 0.00000E+0,1.00000,1,   91.0,   351.000,    26.000,   1,0.1588,   2,0.2117,   3,0.1959,   4,0.4335
  3011,'1 ',  1143.183,   176.800,   620.000,  -120.000,1.00000,  3011,  1050.000, 7.60000E-3, 3.54300E-1, 0.00000E+0, 0.00000E+0,1.00000,1,   92.0,  1400.000,   100.000,   1,0.1452,   2,0.1926,   3,0.2677,   4,0.3945
  3018,'1 ',   400.000,    -0.628,   300.000,  -150.000,0.99000,  3018,   530.000, 8.70000E-2, 3.56300E-1, 0.00000E+0, 0.00000E+0,1.00000,1,   92.5,   500.000,    50.000,   1,0.1043,   2,0.2037,   3,0.2749,   4,0.4171
  3018,'2 ',   100.000,    -0.157,    75.000,   -75.000,0.99000,  3018,   120.000, 2.40000E-2, 3.55300E-1, 0.00000E+0, 0.00000E+0,1.00000,1,   92.5,   110.000,    20.000,   1,0.3003,   2,0.1358,   3,0.2857,   4,0.2782
0 / END OF GENERATOR DATA, BEGIN BRANCH DATA
@!   I,     J,'CKT',     R,          X,         B,                    'N A M E'                 ,   RATE1,   RATE2,   RATE3,   RATE4,   RATE5,   RATE6,   RATE7,   RATE8,   RATE9,  RATE10,  RATE11,  RATE12,    GI,       BI,       GJ,       BJ,STAT,MET,  LEN,  O1,  F1,    O2,  F2,    O3,  F3,    O4,  F4
   151,   160,'1 ', 2.60000E-3, 4.60000E-2,   3.50000,'BRANCH_FROM__151_TO__152___CIRCUIT_ID__1', 1200.00, 1100.00, 1000.00, 1200.40, 1100.50, 1000.60, 1200.70, 1100.80, 1000.90, 1200.10, 1100.11, 1000.12,  0.01000, -0.25000,  0.01100, -0.15000,1,2, 150.00,   1,0.2000,   2,0.3000,   3,0.4000,   4,0.1000
   151,   160,'2 ', 2.61000E-3, 4.61000E-2,   3.51000,'BRANCH_FROM__151_TO__152___CIRCUIT_ID__2', 1205.00, 1105.00, 1005.00, 1205.40, 1105.50, 1005.60, 1205.70, 1105.80, 1005.90, 1205.10, 1105.11, 1005.12,  0.01300, -0.25100,  0.01200, -0.02000,1,2, 149.00,   5,0.2315,   1,0.3056,   2,0.3704,   3,0.0926
   160,   202,'1 ', 8.00000E-4, 1.00000E-2,   0.95000,'BRANCH_FROM__152_TO__202___CIRCUIT_ID__1', 1207.00, 1107.00, 1007.00,    0.00,    0.00,    0.00,    0.00,    0.00,    0.00,    0.00,    0.00,    0.00,  0.00000,  0.00000,  0.00000,  0.00000,1,1, 200.00,   1,0.3939,   2,0.2273,   3,0.3030,   4,0.0758
   160,  3004,'1 ', 3.00000E-3, 3.00000E-2,   2.50000,'BRANCH_FROM__152_TO_3004___CIRCUIT_ID__1',    0.00,    0.00,    0.00,    0.00,    0.00,    0.00,    0.00,    0.00,    0.00,    0.00,    0.00,    0.00,  0.00000,  0.00000,  0.00000,  0.00000,1,2, 201.00,   5,0.2379,   1,0.3033,   2,0.3667,   3,0.0922
   153,   154,'2 ', 6.00000E-3, 5.40000E-2,   0.15000,'BRANCH_FROM__153_TO__154___CIRCUIT_ID__2',  350.00,    0.00,    0.00,    0.00,    0.00,    0.00,    0.00,    0.00,    0.00,    0.00,    0.00,    0.00,  0.00000,  0.00000,  0.00000,  0.00000,1,2,  80.00,   2,0.2727,   3,0.2727,   4,0.3636,   5,0.0909
   154,   155,'1 ', 5.00000E-3, 4.50000E-2,   0.10000,'BRANCH_FROM__154_TO__155___CIRCUIT_ID__1',  400.00,    0.00,    0.00,    0.00,    0.00,    0.00,    0.00,    0.00,    0.00,    0.00,    0.00,    0.00,  0.00000,  0.00000,  0.00000,  0.00000,1,1,  81.00,   5,0.1914,   1,0.2535,   2,0.3065,   3,0.2486
   154,   205,'1 ', 3.30000E-4, 3.33000E-3,   0.09000,'BRANCH_FROM__154_TO__205___CIRCUIT_ID__1',  600.00,    0.00,    0.00,    0.00,    0.00,    0.00,    0.00,    0.00,    0.00,    0.00,    0.00,    0.00,  0.00000,  0.00000,  0.00000,  0.00000,1,2, 120.00,   1,0.1667,   2,0.2500,   3,0.3333,   4,0.2500
   154,  3008,'1 ', 2.70000E-3, 2.20000E-2,   0.30000,'BRANCH_FROM__154_TO__156___CIRCUIT_ID__1',  800.00,    0.00,    0.00,    0.00,    0.00,    0.00,    0.00,    0.00,    0.00,    0.00,    0.00,    0.00,  0.00000,  0.00000,  0.00000,  0.00000,1,2, 119.00,   5,0.1925,   1,0.2550,   2,0.3083,   3,0.2442
   154,   156,'1 ', 2.70000E-3, 2.20000E-2,   0.30000,'BRANCH_FROM__154_TO_3008___CIRCUIT_ID__1',  800.00,    0.00,    0.00,    0.00,    0.00,    0.00,    0.00,    0.00,    0.00,    0.00,    0.00,    0.00,  0.00000,  0.00000,  0.00000,  0.00000,1,2, 119.00,   5,0.1925,   1,0.2550,   2,0.3083,   3,0.2442
   201,   202,'1 ', 2.00000E-3, 2.50000E-2,   2.00000,'BRANCH_FROM__201_TO__202___CIRCUIT_ID__1', 1200.00,    0.00,    0.00,    0.00,    0.00,    0.00,    0.00,    0.00,    0.00,    0.00,    0.00,    0.00,  0.00000,  0.00000,  0.00000,  0.00000,1,2, 300.00,   2,0.1905,   3,0.2857,   4,0.3810,   5,0.1429
   201,   207,'C1', 1.50000E-3, 1.50000E-2,   1.25000,'BRANCH_FROM__201_TO__207___CIRCUIT_ID_C1', 1200.00,    0.00,    0.00,    0.00,    0.00,    0.00,    0.00,    0.00,    0.00,    0.00,    0.00,    0.00,  0.00000,  0.00000,  0.00000,  0.00000,1,2, 250.00,   1,0.2500,   2,0.3750,   3,0.2500,   4,0.1250
   203,   205,'1 ', 5.00000E-3, 4.50000E-2,   0.08000,'BRANCH_FROM__203_TO__205___CIRCUIT_ID__1',  200.00,    0.00,    0.00,    0.00,    0.00,    0.00,    0.00,    0.00,    0.00,    0.00,    0.00,    0.00,  0.00000,  0.00000,  0.00000,  0.00000,1,1,  70.00,   5,0.1925,   1,0.2550,   2,0.3083,   3,0.2442
   204,   207,'C2', 1.50000E-3, 1.50000E-2,   1.25000,'BRANCH_FROM__204_TO__207___CIRCUIT_ID_C2', 1200.00,    0.00,    0.00,    0.00,    0.00,    0.00,    0.00,    0.00,    0.00,    0.00,    0.00,    0.00,  0.00000,  0.00000,  0.00000,  0.00000,1,2, 300.00,   2,0.2000,   3,0.3000,   4,0.4000,   5,0.1000
   205,   212,'1 ',-0.00000E+0, 1.00000E-2,   0.00000,'BRANCH_FROM__205_TO__212___CIRCUIT_ID__1', 1250.00,    0.00,    0.00,    0.00,    0.00,    0.00,    0.00,    0.00,    0.00,    0.00,    0.00,    0.00,  0.00000,  0.00000,  0.00000,  0.00000,1,1,  71.00,   1,0.2000,   2,0.3000,   3,0.4000,   4,0.1000
   205,   214,'2 ', 2.00000E-3, 2.50000E-2,   2.00000,'BRANCH_FROM__205_TO__214___CIRCUIT_ID__2', 1200.00,    0.00,    0.00,    0.00,    0.00,    0.00,    0.00,    0.00,    0.00,    0.00,    0.00,    0.00,  0.00000,  0.00000,  0.00000,  0.00000,1,2, 100.00,   5,0.2100,   1,0.2782,   2,0.3364,   3,0.1755
   205,   216,'3 ', 5.00000E-3, 4.50000E-2,   0.08000,'BRANCH_FROM__205_TO__216___CIRCUIT_ID__3',  200.00,    0.00,    0.00,    0.00,    0.00,    0.00,    0.00,    0.00,    0.00,    0.00,    0.00,    0.00,  0.00000,  0.00000,  0.00000,  0.00000,1,2,  81.00,   2,0.1818,   3,0.2727,   4,0.3636,   5,0.1818
   205,   217,'4 ', 5.00000E-3, 4.50000E-2,   0.08000,'BRANCH_FROM__205_TO__217___CIRCUIT_ID__4',  200.00,    0.00,    0.00,    0.00,    0.00,    0.00,    0.00,    0.00,    0.00,    0.00,    0.00,    0.00,  0.00000,  0.00000,  0.00000,  0.00000,1,2,  80.00,   1,0.1667,   2,0.2500,   3,0.3333,   4,0.2500
   205,   218,'5 ', 5.00000E-3, 4.50000E-2,   0.08000,'BRANCH_FROM__205_TO__218___CIRCUIT_ID__5',  200.00,    0.00,    0.00,    0.00,    0.00,    0.00,    0.00,    0.00,    0.00,    0.00,    0.00,    0.00,  0.00000,  0.00000,  0.00000,  0.00000,1,2,  59.00,   5,0.1650,   1,0.2186,   2,0.2643,   3,0.3521
   219,   214,'1 ',-0.00000E+0, 1.00000E-2,   0.00000,'BRANCH_FROM__219_TO__214___CIRCUIT_ID__1', 1250.00,    0.00,    0.00, 1250.40,    0.00,    0.00, 1250.70,    0.00,    0.00, 1250.10,    0.00,    0.00,  0.00000,  0.00000,  0.00000,  0.00000,1,2,   0.50,   2,0.1429,   3,0.2143,   4,0.2857,   5,0.3571
  3111,  3003,'1 ',-0.00000E+0, 8.00000E-3,   0.00000,'BRANCH_FROM_3001_TO_3003___CIRCUIT_ID__1',    0.00,    0.00,    0.00,    0.00,    0.00,    0.00,    0.00,    0.00,    0.00,    0.00,    0.00,    0.00,  0.00000,  0.00000,  0.00000,  0.00000,1,2,  70.00,   1,0.1639,   2,0.2459,   3,0.3279,   4,0.2623
  3002,  3004,'1 ', 6.00000E-3, 5.40000E-2,   0.09000,'BRANCH_FROM_3002_TO_3004___CIRCUIT_ID__1',    0.00,    0.00,    0.00,    0.00,    0.00,    0.00,    0.00,    0.00,    0.00,    0.00,    0.00,    0.00,  0.00000,  0.00000,  0.00000,  0.00000,1,2, 200.00,   5,0.1925,   1,0.2550,   2,0.3083,   3,0.2442
  3003,  3005,'1 ', 6.00000E-3, 5.40000E-2,   0.09000,'BRANCH_FROM_3003_TO_3005___CIRCUIT_ID__1',    0.00,    0.00,    0.00,    0.00,    0.00,    0.00,    0.00,    0.00,    0.00,    0.00,    0.00,    0.00,  0.00000,  0.00000,  0.00000,  0.00000,1,2,  90.00,   2,0.2000,   3,0.3000,   4,0.4000,   5,0.1000
  3003,  3005,'2 ', 6.00000E-3, 5.40000E-2,   0.09000,'BRANCH_FROM_3003_TO_3005___CIRCUIT_ID__2',    0.00,    0.00,    0.00,    0.00,    0.00,    0.00,    0.00,    0.00,    0.00,    0.00,    0.00,    0.00,  0.00000,  0.00000,  0.00000,  0.00000,1,2,  90.00,   1,0.1333,   2,0.2000,   3,0.2667,   4,0.4000
  3005,  3006,'1 ', 3.50000E-3, 3.00000E-2,   0.07000,'BRANCH_FROM_3005_TO_3006___CIRCUIT_ID__1',    0.00,    0.00,    0.00,    0.00,    0.00,    0.00,    0.00,    0.00,    0.00,    0.00,    0.00,    0.00,  0.00000,  0.00000,  0.00000,  0.00000,1,2,  70.00,   5,0.1650,   1,0.2186,   2,0.2643,   3,0.3521
  3005,  3007,'1 ', 3.00000E-3, 2.50000E-2,   0.06000,'BRANCH_FROM_3005_TO_3007___CIRCUIT_ID__1',    0.00,    0.00,    0.00,    0.00,    0.00,    0.00,    0.00,    0.00,    0.00,    0.00,    0.00,    0.00,  0.00000,  0.00000,  0.00000,  0.00000,1,2,  80.00,   2,0.1527,   3,0.2290,   4,0.3053,   5,0.3130
  3005,  3008,'1 ', 6.00000E-3, 5.00000E-2,   0.12000,'BRANCH_FROM_3005_TO_3008___CIRCUIT_ID__1',    0.00,    0.00,    0.00,    0.00,    0.00,    0.00,    0.00,    0.00,    0.00,    0.00,    0.00,    0.00,  0.00000,  0.00000,  0.00000,  0.00000,0,2,  60.00,   1,0.1802,   2,0.2703,   3,0.3604,   4,0.1892
  3007,  3008,'1 ', 3.00000E-3, 2.50000E-2,   0.06000,'BRANCH_FROM_3007_TO_3008___CIRCUIT_ID__1',    0.00,    0.00,    0.00,    0.00,    0.00,    0.00,    0.00,    0.00,    0.00,    0.00,    0.00,    0.00,  0.00000,  0.00000,  0.00000,  0.00000,1,2,  60.00,   5,0.1858,   1,0.2462,   2,0.4023,   3,0.1657
  3008,  3013,'1 ', 3.00000E-3, 2.50000E-2,   0.06000,'BRANCH_FROM_3008_TO_3013___CIRCUIT_ID__1',   25.00,   22.00,   18.00,    0.00,    0.00,    0.00,    0.00,    0.00,    0.00,    0.00,    0.00,    0.00,  0.00000,  0.00000,  0.00000,  0.00000,1,2,  60.00,   1,0.1797,   2,0.2695,   3,0.3594,   4,0.1914
  3013,  3014,'1 ', 3.00000E-3, 2.50000E-2,   0.06000,'BRANCH_FROM_3013_TO_3014___CIRCUIT_ID__1',   25.00,   22.00,   18.00,    0.00,    0.00,    0.00,    0.00,    0.00,    0.00,    0.00,    0.00,    0.00,  0.00000,  0.00000,  0.00000,  0.00000,1,2,  60.00,   1,0.1797,   2,0.2695,   3,0.3594,   4,0.1914
  3014,  3009,'1 ', 3.00000E-3, 2.50000E-2,   0.06000,'BRANCH_FROM_3014_TO_3009___CIRCUIT_ID__1',   25.00,   22.00,   18.00,    0.00,    0.00,    0.00,    0.00,    0.00,    0.00,    0.00,    0.00,    0.00,  0.00000,  0.00000,  0.00000,  0.00000,1,2,  60.00,   1,0.1797,   2,0.2695,   3,0.3594,   4,0.1914
0 / END OF BRANCH DATA, BEGIN SYSTEM SWITCHING DEVICE DATA
@!   I,     J,'CKT',          X,   RATE1,   RATE2,   RATE3,   RATE4,   RATE5,   RATE6,   RATE7,   RATE8,   RATE9,  RATE10,  RATE11,  RATE12, STAT,NSTAT,  MET,STYPE,'NAME'
   151,   201,'*1', 1.00000E-4, 1206.00, 1106.00, 1006.00,    0.00,    0.00,    0.00,    0.00,    0.00,    0.00,    0.00,    0.00,    0.00,    1,    1,    2,    3,'                                        '
   153,  3006,'@1', 1.00000E-4,    0.00,    0.00,    0.00,    0.00,    0.00,    0.00,    0.00,    0.00,    0.00,    0.00,    0.00,    0.00,    1,    1,    2,    2,'                                        '
0 / END OF SYSTEM SWITCHING DEVICE DATA, BEGIN TRANSFORMER DATA
@!   I,     J,     K,'CKT',CW,CZ,CM,     MAG1,        MAG2,NMETR,               'N A M E',               STAT,O1,  F1,    O2,  F2,    O3,  F3,    O4,  F4,     'VECGRP', ZCOD
@!   R1-2,       X1-2,   SBASE1-2,     R2-3,       X2-3,   SBASE2-3,     R3-1,       X3-1,   SBASE3-1, VMSTAR,   ANSTAR
@!WINDV1,  NOMV1,    ANG1,  RATE1-1,  RATE1-2,  RATE1-3,  RATE1-4,  RATE1-5,  RATE1-6,  RATE1-7,  RATE1-8,  RATE1-9, RATE1-10, RATE1-11, RATE1-12,COD1,CONT1,   RMA1,    RMI1,    VMA1,    VMI1, NTP1,TAB1,  CR1,     CX1,   CNXA1,NOD1
@!WINDV2,  NOMV2,    ANG2,  RATE2-1,  RATE2-2,  RATE2-3,  RATE2-4,  RATE2-5,  RATE2-6,  RATE2-7,  RATE2-8,  RATE2-9, RATE2-10, RATE2-11, RATE2-12,COD2,CONT2,   RMA2,    RMI2,    VMA2,    VMI2, NTP2,TAB2,  CR2,     CX2,   CNXA2,NOD2
@!WINDV3,  NOMV3,    ANG3,  RATE3-1,  RATE3-2,  RATE3-3,  RATE3-4,  RATE3-5,  RATE3-6,  RATE3-7,  RATE3-8,  RATE3-9, RATE3-10, RATE3-11, RATE3-12,COD3,CONT3,   RMA3,    RMI3,    VMA3,    VMI3, NTP3,TAB3,  CR3,     CX3,   CNXA3,NOD3
   111,   151,     0,'T1', 2, 2, 1, 1.71470E-01,-1.02880E-01,2,'EL DORADO NUCLEAR UNIT A GSU TRANSFORMER',1,   1,0.3200,   2,0.3900,   3,0.1400,   4,0.1500,'Dyn1        '
 1.10000E-3, 9.10000E-2,  1200.00
21.6000,  21.600,   0.000,  1200.00,  1100.00,  1000.00,     0.00,     0.00,     0.00,     0.00,     0.00,     0.00,     0.00,     0.00,     0.00, 1,    101,22.68000,20.52000, 1.05000, 0.95000,  25, 0, 0.00021, 0.00051,  0.000,   0
500.000, 500.000
   102,   151,     0,'T2', 2, 1, 2, 4.53750E+05, 2.60000E-03,2,'EL DORADO NUCLEAR UNIT B GSU TRANSFORMER',1,   1,0.2100,   2,0.2500,   3,0.2200,   4,0.3200,'Dyn1        '
 1.20000E-4, 7.60000E-3,  1210.00
21.6000,  21.600,   0.000,  1210.00,  1125.00,  1025.00,     0.00,     0.00,     0.00,     0.00,     0.00,     0.00,     0.00,     0.00,     0.00, 1,    102,22.57200,20.62800, 1.04500, 0.95500,  27, 0, 0.00022, 0.00052,  0.000,   0
500.000, 500.000
   152,   153,     0,'T3', 2, 1, 1, 2.10000E-04,-1.20000E-04,2,'MID LTC                                 ',1,   1,0.3500,   2,0.2200,   3,0.2500,   4,0.1800,'YNyn0       '
 1.70000E-4, 7.75000E-3,   800.00
475.000, 500.000,   0.000,   800.00,   750.00,   700.00,     0.00,     0.00,     0.00,     0.00,     0.00,     0.00,     0.00,     0.00,     0.00, 1,    154,525.0000,475.0000, 1.00000, 0.98000,  10, 0, 0.00023, 0.00053,  0.000,   0
230.000, 230.000
   152,  3021,     0,'T4', 1, 2, 2, 5.62500E+05, 2.80000E-03,2,'WDUM DC                                 ',1,   1,0.3900,   2,0.3200,   3,0.1500,   4,0.1400,'YNyn0       '
 1.30000E-3, 6.30000E-2,  1500.00
1.10000, 500.000,   0.000,  1500.00,  1400.00,  1350.00,     0.00,     0.00,     0.00,     0.00,     0.00,     0.00,     0.00,     0.00,     0.00, 4,      0, 1.10000, 0.90000, 1.10000, 0.90000,  33, 2, 0.00000, 0.00000,  0.000,   0
1.00000,  18.000
   152,  3022,     0,'T5', 1, 2, 1, 4.00000E-04,-2.10000E-04,2,'EDUM DC                                 ',1,   1,0.2200,   2,0.2500,   3,0.2100,   4,0.3200,'YNyn0       '
 1.70000E-3, 7.40000E-2,  1510.00
1.10000, 500.000,   0.000,  1510.00,  1410.00,  1393.00,     0.00,     0.00,     0.00,     0.00,     0.00,     0.00,     0.00,     0.00,     0.00, 4,      0, 1.10000, 0.90000, 1.10000, 0.90000,  33, 0, 0.00000, 0.00000,  0.000,   0
1.00000,  18.000
   154,  9154,     0,'W1', 1, 1, 1, 0.00000E+00, 0.00000E+00,2,'WTG1XMER                                ',1,   1,1.0000,   0,1.0000,   0,1.0000,   0,1.0000,'YNd1        '
-0.00000E+0, 5.83330E-1,    12.00
1.00000,   0.000,   0.000,    12.00,     0.00,     0.00,     0.00,     0.00,     0.00,     0.00,     0.00,     0.00,     0.00,     0.00,     0.00, 0,      0, 1.10000, 0.90000, 1.10000, 0.90000,  33, 0, 0.00000, 0.00000,  0.000,   0
1.00000,   0.000
   201,   211,     0,'T6', 2, 1, 2, 2.62500E+05, 3.00000E-03,2,'HYDRO_G XMER                            ',1,   1,0.1400,   2,0.1500,   3,0.3200,   4,0.3900,'YNd1        '
 2.60000E-4, 1.34300E-2,   700.00
500.000, 500.000,   0.000,   700.00,   650.00,   611.00,     0.00,     0.00,     0.00,     0.00,     0.00,     0.00,     0.00,     0.00,     0.00, 0,      0, 1.10000, 0.90000, 1.10000, 0.90000,   5, 0, 0.00000, 0.00000,  0.000,   0
20.0000,  20.000
   203,   202,     0,'T7', 1, 2, 1, 9.50000E-04,-4.60000E-04,1,'EAST PS                                 ',1,   1,0.2754,   2,0.3261,   3,0.2899,   4,0.1087,'YNyn0       '
 2.10000E-3, 5.40000E-2,   750.00
0.99000, 230.000,   0.143,   750.00,   700.00,   657.00,     0.00,     0.00,     0.00,     0.00,     0.00,     0.00,     0.00,     0.00,     0.00, 3,      0,12.00000,-11.0000,-900.000,-950.000,  33, 1, 0.00000, 0.00000,  0.000,   0
1.00000, 500.000
   204,   205,     0,'T8', 1, 2, 1, 1.13000E-03,-5.20000E-04,2,'SUB LTC                                 ',1,   1,0.3019,   2,0.4245,   3,0.1321,   4,0.1415,'YNyn0       '
 3.70000E-3, 4.50000E-2,   800.00
1.03667, 500.000,   0.000,   800.00,   775.00,   717.00,     0.00,     0.00,     0.00,     0.00,     0.00,     0.00,     0.00,     0.00,     0.00, 1,    205, 1.05000, 0.95000, 1.00000, 0.98000,  16, 0, 0.00024, 0.00054,  0.000,   0
1.00000, 230.000
   204,  9204,     0,'W2', 1, 1, 1, 0.00000E+00, 0.00000E+00,2,'WTG2XMER                                ',1,   2,1.0000,   0,1.0000,   0,1.0000,   0,1.0000,'YNd1        '
 8.80000E-2, 6.61710E-1,     8.75
1.00000,   0.000,   0.000,     8.75,     0.00,     0.00,     0.00,     0.00,     0.00,     0.00,     0.00,     0.00,     0.00,     0.00,     0.00, 0,      0, 1.10000, 0.90000, 1.10000, 0.90000,  33, 0, 0.00000, 0.00000,  0.000,   0
1.00000,   0.000
   205,   206,   210,'T9', 1, 2, 1, 1.13000E-03,-5.20000E-04,2,'URB AUS                                 ',1,   1,0.1905,   2,0.4643,   3,0.1667,   4,0.1786,'YNd1        '
 1.60000E-3, 4.80000E-2,   900.00, 1.24790E-2, 8.73500E-1,    20.00, 2.00690E-2, 1.34000E+0,    15.00,0.60345, -36.7860
1.01591, 230.000,   0.000,   900.00,   850.00,   799.00,     0.00,     0.00,     0.00,     0.00,     0.00,     0.00,     0.00,     0.00,     0.00, 2,      0, 1.05000, 0.97500,-175.000,-250.000,  12, 0, 0.00000, 0.00000,  0.000,   0
1.00000,  18.000,   0.000,    20.00,    18.00,    15.00,     0.00,     0.00,     0.00,     0.00,     0.00,     0.00,     0.00,     0.00,     0.00, 0,      0, 1.20000, 0.90120, 1.10000, 0.90000,  33, 0, 0.00012, 0.00046,  0.000,   0
1.00000, 230.000,   0.000,    15.00,    13.00,    10.00,     0.00,     0.00,     0.00,     0.00,     0.00,     0.00,     0.00,     0.00,     0.00, 0,      0, 1.10000, 0.90000, 1.10000, 0.90000,  33, 6, 0.00000, 0.00000,  0.000,   0
   205,   215,   208,'W3', 2, 2, 3, 3.00000E+04, 2.00000E-03,2,'THREE WDG WITH COMPLEX IMP COR FACTORS 2',3,   2,0.2540,   2,0.1746,   3,0.3333,   4,0.2381,'YN0yn0y0    ', 1
 8.00000E-4, 4.36670E-3,   200.00, 1.24790E-2, 8.73500E-1,    20.00, 2.00690E-2, 1.34000E+0,    15.00,0.60345, -36.7860
1.90000, 300.000,   9.000,   200.00,   150.00,   100.00,     0.00,     0.00,     0.00,     0.00,     0.00,     0.00,     0.00,     0.00,     0.00,-1,    215, 1.00000, 0.91000, 1.00000, 0.91000,  33, 5, 0.00025, 0.00064,  0.000,   0
1.00000,  18.000,   0.000,    20.00,    18.00,    15.00,     0.00,     0.00,     0.00,     0.00,     0.00,     0.00,     0.00,     0.00,     0.00, 0,      0, 1.20000, 0.90120, 1.10000, 0.90000,  40, 5, 0.00012, 0.00046,  0.000,   0
1.00000, 230.000,   0.000,    15.00,    13.00,    10.00,     0.00,     0.00,     0.00,     0.00,     0.00,     0.00,     0.00,     0.00,     0.00, 0,      0, 1.10000, 0.90000, 1.10000, 0.90000,  33, 6, 1.00000, 1.10000,  1.500,   0
   209,   217,   218,'4 ', 2, 3, 2, 4.18934E+01, 9.98336E-06,2,'3WNDSTAT4                               ',4,   2,0.4671,   2,0.1250,   3,0.2379,   4,0.1700,'YN0yn0yn0   ', 0
 2.28000E+5, 1.00010E-1,    30.00, 1.90000E+5, 9.00000E-2,    25.00, 2.66000E+5, 7.50000E-2,    35.00,0.99757, -37.3310
230.000, 230.000,   0.000,    30.00,    20.00,    10.00,     0.00,     0.00,     0.00,     0.00,     0.00,     0.00,     0.00,     0.00,     0.00,-1,      0,253.0000,207.0000, 1.10000, 0.90000,  33, 2, 0.00031, 0.00784,  0.000,   0
230.000, 230.000,   0.000,    25.00,    18.00,    12.00,     0.00,     0.00,     0.00,     0.00,     0.00,     0.00,     0.00,     0.00,     0.00,-1,    217,253.0000,207.0000, 1.10000, 0.90000,  33, 2, 0.00021, 0.00862,  0.000,   0
230.000, 230.000,   0.000,    35.00,    26.00,    14.00,     0.00,     0.00,     0.00,     0.00,     0.00,     0.00,     0.00,     0.00,     0.00,-1,      0,253.0000,207.0000, 1.10000, 0.90000,  33, 2, 0.00024, 0.00394,  0.000,   0
  3111,  3002,  3011,'1 ', 1, 1, 1, 1.20000E-03,-4.20000E-03,2,'THREE WDG WITH COMPLEX IMP COR FACTORS 2',1,   1,0.1238,   2,0.2477,   3,0.1548,   5,0.4737,'YN0yn0d1    ', 1
 1.13000E-4, 8.05000E-3,  1000.00, 2.50000E-4, 1.74700E-2,  1000.00, 3.01000E-4, 2.01000E-2,  1000.00,0.98588,  -9.8267
0.99884, 230.000,   0.000,  1200.00,  1150.00,  1090.00,     0.00,     0.00,     0.00,     0.00,     0.00,     0.00,     0.00,     0.00,     0.00, 1,   3002, 1.10020, 0.92000, 1.16000, 0.93000,  33, 3, 0.00013, 0.00016,  0.000,   0
1.00000, 500.000,   0.000,  1250.00,  1175.00,  1112.00,     0.00,     0.00,     0.00,     0.00,     0.00,     0.00,     0.00,     0.00,     0.00, 0,      0, 1.10010, 0.90000, 1.14000, 0.91000,  22, 0, 0.00012, 0.00015,  0.000,   0
1.00000,  19.400,   0.000,  1280.00,  1200.00,  1157.00,     0.00,     0.00,     0.00,     0.00,     0.00,     0.00,     0.00,     0.00,     0.00, 0,      0, 1.10000, 0.91000, 1.10000, 0.92000,  11, 4, 0.00011, 0.00014,  0.000,   0
  3002, 93002,     0,'W3', 1, 1, 1, 0.00000E+00, 0.00000E+00,2,'WTG3XMER                                ',1,   5,1.0000,   0,1.0000,   0,1.0000,   0,1.0000,'YNd1        '
-0.00000E+0, 2.02703E+0,     3.70
1.00000,   0.000,   0.000,     3.70,     0.00,     0.00,     0.00,     0.00,     0.00,     0.00,     0.00,     0.00,     0.00,     0.00,     0.00, 0,      0, 1.10000, 0.90000, 1.10000, 0.90000,  33, 0, 0.00000, 0.00000,  0.000,   0
1.00000,   0.000
  3005,  3004,     0,'10', 1, 1, 2, 2.06250E+05, 3.40000E-03,1,'WEST TX                                 ',1,   1,0.2645,   2,0.4959,   3,0.1157,   4,0.1240,'YNa0        '
 3.50000E-4, 9.64000E-3,   550.00
1.00000, 230.000,   0.000,   550.00,   500.00,   455.00,     0.00,     0.00,     0.00,     0.00,     0.00,     0.00,     0.00,     0.00,     0.00, 0,      0, 1.10000, 0.90000, 1.10000, 0.90000,   3, 0, 0.00000, 0.00000,  0.000,   0
1.00000, 500.000
  3008,  3018,     0,'11', 2, 1, 2, 1.96875E+05, 3.50000E-03,2,'CATDOG_XMER                             ',1,   1,0.2051,   2,0.2500,   3,0.4487,   4,0.0962,'YNa0        '
 4.40000E-4, 1.27600E-2,   525.00
230.000, 230.000,   0.000,   525.00,   475.00,   423.00,     0.00,     0.00,     0.00,     0.00,     0.00,     0.00,     0.00,     0.00,     0.00, 0,      0, 1.10000, 0.90000, 1.10000, 0.90000,  22, 2, 0.00000, 0.00000,  0.000,   0
13.8000,  13.800
  3008,  3012,     0,'2 ', 2, 1, 1, 2.10000E-04,-1.20000E-04,1,'2WNDSTAT2                               ',2,   5,0.8000,   3,0.0500,   2,0.1000,   1,0.0500,'D1y0y0      ', 0
 5.15000E-3, 5.00000E-1,    20.00, 9.20000E-3, 8.00000E-1,    15.00, 3.75000E-3, 4.16670E-1,    25.00,0.98625, -30.5021
230.000, 230.000,   0.000,    20.00,    18.00,    14.00,     0.00,     0.00,     0.00,     0.00,     0.00,     0.00,     0.00,     0.00,     0.00, 0,      0, 1.10000, 0.90000, 1.10000, 0.90000,  33, 0, 0.00000, 0.00000,  0.000,   0
230.000, 230.000,   0.000,    15.00,    13.00,     9.00,     0.00,     0.00,     0.00,     0.00,     0.00,     0.00,     0.00,     0.00,     0.00, 0,      0, 1.10000, 0.90000, 1.10000, 0.90000,  33, 0, 0.00000, 0.00000,  0.000,   0
0 / END OF TRANSFORMER DATA, BEGIN AREA DATA
@! I,   ISW,     PDES,      PTOL,    'ARNAME'
   1,   101, -2800.000,    10.000,'CENTRAL     '
   2,   206, -1600.000,    10.000,'EAST        '
   3,   301,  2900.000,    55.000,'CENTRAL_DC  '
   4,   401,   300.000,    15.000,'EAST_COGEN1 '
   5,  3011,   900.000,    10.000,'WEST        '
   6,   402,   300.000,    20.000,'EAST_COGEN2 '
0 / END OF AREA DATA, BEGIN TWO-TERMINAL DC DATA
@!  'NAME',   MDC,     RDC,      SETVL,     VSCHD,     VCMOD,     RCOMP,    DELTI,METER    DCVMIN,CCCITMX, CCCACC
@! IPR,NBR,ANMXR,ANMNR,   RCR,    XCR,  EBASR,  TRR,    TAPR,   TMXR,   TMNR,   STPR,    ICR,   IFR,   ITR,'IDR', XCAPR,NDR
@! IPI,NBI,ANMXI,ANMNI,   RCI,    XCI,  EBASI,  TRI,    TAPI,   TMXI,   TMNI,   STPI,    ICI,   IFI,   ITI,'IDI', XCAPI,NDI
"TWO_TERM_DC1",1,    7.8543,   1490.65,    525.00,    400.00,    3.9420,   0.15560,'I',      0.00,  20,   1.00000
   301,  2,13.00, 7.50, 0.0111, 3.8800, 500.0,0.44000,1.06275,1.10000,0.90000,0.00525,     0,     0,     0,'1 ', 2.0034,  0
  3021,  2,21.00,18.50, 0.0000, 3.0470, 230.0,0.95652,1.07500,1.10000,0.80000,0.00625,     0,   152,  3021,'T4', 2.0000,  0
"TWO_TERM_DC2",1,    8.2000,   1500.00,    525.00,    400.00,    4.1000,   0.15000,'I',      0.00,  20,   1.00000
   301,  2,12.00, 8.00, 0.0110, 3.8800, 500.0,0.44000,1.05450,1.11200,0.90000,0.00515,     0,     0,     0,'1 ', 0.0098,  0
  3022,  2,20.00,18.00, 0.0120, 3.0470, 230.0,0.95652,1.06250,1.10000,0.80000,0.00625,     0,   152,  3022,'T5', 0.0074,  0
0 / END OF TWO-TERMINAL DC DATA, BEGIN VSC DC LINE DATA
@!  'NAME',   MDC,     RDC,   O1,  F1,    O2,  F2,    O3,  F3,    O4,  F4
@!IBUS,TYPE,MODE,     DCSET,   ACSET,     ALOSS,     BLOSS,   MINLOSS,     SMAX,      IMAX,   PWF,        MAXQ,      MINQ, VSREG,  RMPCT,NREG
"VDCLINE1    ",1,    0.7100,   1,0.3204,   2,0.3883,   3,0.1942,   4,0.0971
  3005,   2,   2,   -209.00, 0.95000,   100.000,     0.100,    50.000,    400.00,   1200.00,0.10000,    100.00,   -110.00,  3005,  100.0,   0
  3008,   1,   1,    100.00, 0.99000,    90.000,     0.150,    40.000,    350.00,   1200.00,0.15000,    150.00,   -140.00,  3008,  100.0,   0
"VDCLINE2    ",1,    0.3500,   1,0.3705,   2,0.3597,   3,0.1799,   4,0.0899
   203,   2,   1,   -100.00, 1.00000,   100.000,     0.150,   123.000,    200.00,   1200.00,1.00000,    200.00,   -150.00,   203,  100.0,   0
   205,   1,   1,    100.00, 1.00000,    93.000,     0.120,    98.000,    250.00,   1250.00,1.00000,    225.00,   -250.00,   205,   99.0,   0
0 / END OF VSC DC LINE DATA, BEGIN IMPEDANCE CORRECTION DATA
@!I,   T1,    Re(F1),  Im(F1),    T2,    Re(F2),  Im(F2),    T3,    Re(F3),  Im(F3),    T4,    Re(F4),  Im(F4),    T5,    Re(F5),  Im(F5),    T6,    Re(F6),  Im(F6)
@!     T7,    Re(F7),  Im(F7),    T8,    Re(F8),  Im(F8),    T9,    Re(F9),  Im(F9),    T10,  Re(F10), Im(F10),    T11,  Re(F11), Im(F11),    T12,  Re(F12), Im(F12)
@!      ...
 1,  -30.00, 1.10000, 0.00000,  -24.00, 1.09100, 0.00000,  -18.00, 1.08400, 0.00000,  -12.00, 1.06300, 0.00000,   -6.00, 1.03200, 0.00000,    0.00, 1.00000, 0.00000
       6.00, 1.03000, 0.00000,   12.00, 1.06000, 0.00000,   18.00, 1.08000, 0.00000,   24.00, 1.09000, 0.00000,   30.00, 1.11000, 0.00000,    0.00, 0.00000, 0.00000
 2, 0.60000, 1.06000, 0.00000, 0.70000, 1.05000, 0.00000, 0.80000, 1.04000, 0.00000, 0.90000, 1.03000, 0.00000, 0.95000, 1.02000, 0.00000, 1.00000, 1.01000, 0.00000
    1.05000, 0.99000, 0.00000, 1.10000, 0.98000, 0.00000, 1.20000, 0.97000, 0.00000, 1.30000, 0.96000, 0.00000, 1.40000, 0.95000, 0.00000, 0.00000, 0.00000, 0.00000
 3, 0.95000, 1.00620, 0.00058, 1.00000, 1.00000, 0.00000, 1.05000, 0.99006, 0.00011, 0.00000, 0.00000, 0.00000
 4, 0.95000, 0.96964, 0.00054, 1.00000, 1.00000, 0.00000, 1.05000, 1.02486, 0.00077, 0.00000, 0.00000, 0.00000
 5, 0.94000, 1.00620, 0.00058, 1.00000, 1.00000, 0.00000, 1.06000, 0.99006, 0.00011, 0.00000, 0.00000, 0.00000
 6, 0.94000, 0.96964, 0.00054, 1.00000, 1.00000, 0.00000, 1.06000, 1.02486, 0.00077, 0.00000, 0.00000, 0.00000
0 / END OF IMPEDANCE CORRECTION DATA, BEGIN MULTI-TERMINAL DC DATA
@!  'NAME',    NCONV,NDCBS,NDCLN,  MDC, VCONV,     VCMOD, VCONVN
@!  IB, N,ANGMX,ANGMN,    RC,      XC,    EBAS,   TR,    TAP,    TPMX,   TPMN,   TSTP,     SETVL,   DCPF,    MARG,CNVCOD
@!IDC, IB,AREA,ZONE,   'DCNAME',  IDC2,   RGRND,OWNER
@!IDC,JDC,'DCCKT',MET,   RDC,        LDC
"MULTERM_DC_1",    4,    5,    4,    1,   212,    400.00,     0
   402, 4,10.00, 8.00,  0.0000, 19.0000, 500.0,0.22000,1.01000,1.10000,0.97000,0.01000,   321.00, 1.0000,  0.15000, 3
   401, 4,10.00, 8.00,  0.0000, 19.0000, 500.0,0.22000,1.01000,1.10000,0.97000,0.01000,   321.00, 1.0000,  0.15000, 3
   212, 4,20.00,18.00,  0.0000, 10.0000, 230.0,0.45200,1.04000,1.10000,0.90000,0.01000,   500.00, 1.0000,  0.00000, 1
   219, 4,20.00,18.00,  0.0000, 10.0000, 230.0,0.45200,1.10000,1.10000,0.90000,0.01000,  -303.80, 1.0000,  0.00000, 4
 1,   401,   4,   4,'DC1         ', 0,   0.0000,   4
 2,   212,   2,   2,'DC2         ', 0,   0.0000,   2
 3,   402,   4,   4,'DC3         ', 0,   0.0000,   4
 4,   219,   2,   2,'DC4         ', 0,   0.0000,   2
 5,     0,   4,   4,'DC5         ', 0,   0.0000,   4
   1,  5,   '1',  1,   29.0000,     0.00
   2,  5,   '1',  1,   29.0000,     0.00
   3,  5,   '1',  1,   29.0000,     0.00
   4,  5,   '1',  1,   29.0000,     0.00
0 / END OF MULTI-TERMINAL DC DATA, BEGIN MULTI-SECTION LINE DATA
@!   I,     J,'ID',MET,DUM1,  DUM2,  DUM3,  DUM4,  DUM5,  DUM6,  DUM7,  DUM8,  DUM9
   201,   204,'&1',2,   207
0 / END OF MULTI-SECTION LINE DATA, BEGIN ZONE DATA
@! I,   'ZONAME'
   1,'NORTH_A1    '
   2,'MID_A1_A2_A5'
   3,'DISCNT_IN_A1'
   4,'SOUTH_A1_A5 '
   5,'ALL_A3      '
   6,'NORTH_A5    '
   7,'NORTH_A2    '
   8,'SOUTH_A2    '
   9,'ALL_A4_A6   '
0 / END OF ZONE DATA, BEGIN INTER-AREA TRANSFER DATA
@!ARFROM,ARTO,'TRID', PTRAN
     1,     2,'A',  1000.00
     1,     5,'B', -3800.00
     2,     4,'C',  -300.00
     2,     6,'E',  -300.00
     3,     5,'D',  2900.00
0 / END OF INTER-AREA TRANSFER DATA, BEGIN OWNER DATA
@! I,   'OWNAME'
   1,'OWNER 1     '
   2,'OWNER 2     '
   3,'OWNER 3     '
   4,'OWNER 4     '
   5,'OWNER 5     '
0 / END OF OWNER DATA, BEGIN FACTS DEVICE DATA
@!  'NAME',         I,     J,MODE,   PDES,      QDES,  VSET,      SHMX,      TRMX,   VTMN,   VTMX,   VSMX,      IMX,     LINX,   RMPCT,OWNER,    SET1,      SET2,VSREF, FCREG,   'MNAME'    ,NREG
"FACTS_DVCE_1",   153,     0,1,     0.000,     0.000,1.01500,    50.000,   100.000,0.92630,1.13400,1.00000,     0.000, 0.05652,  100.0,   1,   0.00000,   0.00000,   0,   153,"            ",   0
"FACTS_DVCE_2",   153,   155,1,   350.000,    40.000,1.01500,    25.000,  9999.000,0.90000,1.10000,1.00000,     0.000, 0.05000,  100.0,   1,   0.00000,   0.00000,   0,   153,"            ",   0
0 / END OF FACTS DEVICE DATA, BEGIN SWITCHED SHUNT DATA
@!  I,MODSW,ADJM,ST, VSWHI,  VSWLO, SWREG,  RMPCT,   'RMIDNT',      BINIT,N1,     B1, N2,     B2, N3,     B3, N4,     B4, N5,     B5, N6,     B6, N7,     B7, N8,     B8, NREG
   152,  1,  0,  1,1.04500,0.95500,   152,  100.0,'            ', -233.00, 1,  -15.00, 2,   -5.00, 3,  -10.00, 4,   -8.00, 5,   -7.00, 6,   -5.00, 7,   -7.00, 8,   -4.00
   154,  1,  0,  1,1.04480,0.96500,   154,  100.0,'            ',  124.00, 1,   25.00, 2,   10.00, 2,   15.00, 1,   15.00, 2,    5.00, 3,    3.00, 2,    4.00, 1,    7.00
   161, CC,  0,  1,1.04480,0.96500,   154,  100.0,'            ',  124.00, 1,   25.00, 2,   10.00, 2,   15.00, 1,   15.00, 2,    5.00, 3,    3.00, 2,    4.00, 1,    7.00
  3005,  4,  0,  1,0.98000,0.64000,  3005,  100.0,'VDCLINE1    ',    0.00, 1,   33.35
  3021,  2,  0,  1,1.00000,1.00000,  3021,  100.0,'            ',  493.37, 2,  200.00, 1,  100.00, 2,   50.00, 4,   25.00
  3022,  1,  1,  0,1.10000,0.90000,  3021,   99.0,'A           ',  600.00, 5,  200.00, 2,   50.00, 4,   25.00, 3,   20.00, 2,   20.00
 93002,  1,  0,  1,0.99628,0.99628, 93002,  100.0,'            ',    1.44, 1,    1.44
0 / END OF SWITCHED SHUNT DATA, BEGIN GNE DATA
@!  'NAME',        'MODEL',     NTERM,BUS1...BUSNTERM,NREAL,NINTG,NCHAR
@!ST,OWNER,NMETR
@! REAL1...REAL(MIN(10,NREAL))
@! INTG1...INTG(MIN(10,NINTG))
@! CHAR1...CHAR(MIN(10,NCHAR))
0 / END OF GNE DATA, BEGIN INDUCTION MACHINE DATA
@!   I,'ID',ST,SC,DC,AREA,ZONE,OWNER,TC,BC,  MBASE, RATEKV,PC,  PSET,      H,       A,       B,       D,       E,     RA,        XA,        XM,        R1,        X1,        R2,        X2,        X3,       E1,    SE1,   E2,    SE2,   IA1,   IA2, XAMULT
  9154,"1 ", 1, 1, 2,   1,   3,   1, 1, 2,   2.270,   4.160,2,-2.0000,   1.000,   1.000,   1.000,  -1.000,   1.000
  9204,"1 ", 1, 1, 2,   2,   8,   2, 1, 1,  10.000,   0.575,1,10.0000,   1.000,   1.000,   1.000,   1.000,   1.000
 93002,"1 ", 1, 1, 2,   5,   6,   5, 1, 2,   5.620,   0.690,2,-5.0000,   1.000,   1.000,   1.000,  -1.000,   1.000
0 / END OF INDUCTION MACHINE DATA, BEGIN SUBSTATION DATA
0 / END OF SUBSTATION DATA
Q